##CIF_1.1

data_sm_global
#Used dictionaries
loop_
_audit_conform_dict_name
_audit_conform_dict_version
_audit_conform_dict_location
cif_core.dic 	2.4.2 	.
cif_pd.dic 		1.0.1 	.
cif_sm.dic 		0.1 	'redaktion.landolt-boernstein(at)springer.com'

#About this content and reference
_sm_credits_copyright
;PAULING FILE Multinaries Edition - 2012. SpringerMaterials Release 2014.
http://www.paulingfile.com
Unique LPF ID Number SD0455614
Project Coordinator: Shuichi Iwata
Section-Editors: Karin Cenzual (Crystal Structures), Hiroaki Okamoto (Phase 
Diagrams), Fritz Hulliger (Physical Properties)
(c) Springer & Material Phases Data System (MPDS), Switzerland & National 
Institute for Materials Science (NIMS), Japan 2014.
(Data generated pre-2002: (c) Springer & MPDS & NIMS; 
post-2001: (c) Springer & MPDS)
All Rights Reserved. Version 2014.06.
;

_audit_creation_method
;This data have been compiled from the crystallographic datasheet for 
"2H-WS2 (WS2 2H, <i>T</i> = 300 K) Crystal Structure" 
taken from SpringerMaterials (sm_isp_sd_0455614).
;

_publ_section_references
;Schutte W.J., De Boer J.L., Jellinek F.: <i>Crystal Structures of Tungsten Disulfide and Diselenide</i>. Journal of Solid State Chemistry <b>70</b> (1987) 207-209.
;

#Phase classification
_sm_phase_labels				'WS2 2H'
_chemical_name_mineral			'tungstenite 2H'
_sm_chemical_compound_class		'sulfide'
_sm_phase_prototype				'MoS2 '
_sm_pearson_symbol				'hP6'
_symmetry_Int_Tables_number		194
_sm_sample_details
;single crystal (determination of cell and structural parameters)
;
_sm_measurement_details
;automatic diffractometer; 20 (determination of cell parameters), 
automatic diffractometer; Enraf-Nonius CAD4 (determination of structural parameters), 
X-rays, Mo K&#x03b1;; &#x03bb; = 0.071071 nm (determination of cell and structural parameters), 
<i>T</i> = 300 K (determination of cell and structural parameters)
;
_sm_interpretation_details
;complete structure determined, 
full-matrix least-squares refinement; I &#x003e; 2.5&#x03c3;(I), 
<i>R</i> = 0.064
;

data_sm_isp_SD0455614-standardized_unitcell
#Cell Parameters
_cell_length_a					3.1532
_cell_length_b					3.1532
_cell_length_c					12.323
_cell_angle_alpha				90
_cell_angle_beta				90
_cell_angle_gamma				120
_sm_length_ratio_ab				1.000
_sm_length_ratio_bc				0.256
_sm_length_ratio_ca				3.908
_cell_volume 					106.11
_symmetry_space_group_name_H-M	'P63/mmc'
_symmetry_Int_Tables_number		194
_cell_formula_units_Z			2
_sm_cell_transformation
;No transformation from published to standardized cell parameters necessary.
;

#Atom Coordinates
loop_
_atom_site_label
_atom_site_type_symbol
_atom_site_Wyckoff_symbol
_sm_site_symmetry
_atom_site_fract_x
_atom_site_fract_y
_atom_site_fract_z
_atom_site_occupancy
_sm_coordination_number
_sm_atomic_environment_type
S 'S' .4f .3m. 0.333333333333333 0.666666666666667 0.6225 1 3 'non-coplanar triangle , W<sub>3</sub>'
W 'W' .2c .-6m2 0.333333333333333 0.666666666666667 0.25 1 6 'trigonal prism, S<sub>6</sub>'

_sm_atom_site_transformation
;No transformation from published to standardized cell parameters necessary.
;

data_sm_isp_SD0455614-published_cell
#Cell Parameters
_cell_length_a					3.1532(4)
_cell_length_b					3.1532(4)
_cell_length_c					12.323(5)
_cell_angle_alpha				90
_cell_angle_beta				90
_cell_angle_gamma				120
_sm_length_ratio_ab				1.000
_sm_length_ratio_bc				0.256
_sm_length_ratio_ca				3.908
_cell_volume 					106.11
_symmetry_space_group_name_H-M	'P63/mmc'
_symmetry_Int_Tables_number		194
_cell_formula_units_Z			2

#Atom Coordinates
loop_
_atom_site_label
_atom_site_type_symbol
_atom_site_Wyckoff_symbol
_sm_site_symmetry
_atom_site_fract_x
_atom_site_fract_y
_atom_site_fract_z
_atom_site_occupancy
_sm_coordination_number
_sm_atomic_environment_type
W 'W' .2c .-6m2 0.333333333333333 0.666666666666667 0.25 1 ? '?'
S 'S' .4f .3m. 0.333333333333333 0.666666666666667 0.6225(6) 1 ? '?'

data_sm_isp_SD0455614-niggli_reduced_cell
#Cell Parameters
_cell_length_a					3.1532
_cell_length_b					3.1532
_cell_length_c					12.323
_cell_angle_alpha				90
_cell_angle_beta				90
_cell_angle_gamma				120
_sm_length_ratio_ab				1.000
_sm_length_ratio_bc				0.256
_sm_length_ratio_ca				3.908
_cell_volume 					106.11
_symmetry_space_group_name_H-M	''
_symmetry_Int_Tables_number		?
_cell_formula_units_Z			2

#Atom Coordinates
loop_
_atom_site_label
_atom_site_type_symbol
_atom_site_Wyckoff_symbol
_sm_site_symmetry
_atom_site_fract_x
_atom_site_fract_y
_atom_site_fract_z
_atom_site_occupancy
_sm_coordination_number
_sm_atomic_environment_type
? ? ? ? ? ? ? ? ? ?

